
     RDKit          3D

 38 41  0  0  0  0  0  0  0  0999 V2000
    1.5863    0.7855   -2.1128 O   0  0  0  0  0  0  0  0  0  0  0  0
    1.1295    0.4289   -1.0341 C   0  0  0  0  0  0  0  0  0  0  0  0
    1.8389    0.1095    0.1066 N   0  0  0  0  0  0  0  0  0  0  0  0
    3.2316    0.1163    0.3014 C   0  0  0  0  0  0  0  0  0  0  0  0
    3.6915   -0.2543    1.5682 C   0  0  0  0  0  0  0  0  0  0  0  0
    5.0606   -0.2798    1.8637 C   0  0  0  0  0  0  0  0  0  0  0  0
    5.9949    0.0726    0.8725 C   0  0  0  0  0  0  0  0  0  0  0  0
    7.3715    0.0920    1.0244 N   0  0  0  0  0  0  0  0  0  0  0  0
    7.9288    0.4687   -0.1035 C   0  0  0  0  0  0  0  0  0  0  0  0
    6.8681    0.8194   -1.3997 S   0  0  0  0  0  0  0  0  0  0  0  0
    5.5229    0.4409   -0.3884 C   0  0  0  0  0  0  0  0  0  0  0  0
    4.1484    0.4697   -0.6953 C   0  0  0  0  0  0  0  0  0  0  0  0
   -0.3063    0.2924   -0.8176 C   0  0  0  0  0  0  0  0  0  0  0  0
   -1.3029    0.5284   -1.7338 C   0  0  0  0  0  0  0  0  0  0  0  0
   -2.4989    0.2843   -1.1329 O   0  0  0  0  0  0  0  0  0  0  0  0
   -2.1706   -0.0946    0.1402 C   0  0  0  0  0  0  0  0  0  0  0  0
   -3.2881   -0.4388    1.0759 C   0  0  0  0  0  0  0  0  0  0  0  0
   -4.2011    0.7603    1.3525 C   0  0  0  0  0  0  0  0  0  0  0  0
   -5.2504    0.9569    0.2662 C   0  0  0  0  0  0  0  0  0  0  0  0
   -5.9766   -0.2506    0.0501 O   0  0  0  0  0  0  0  0  0  0  0  0
   -5.1414   -1.2997   -0.4336 C   0  0  0  0  0  0  0  0  0  0  0  0
   -4.0842   -1.6593    0.6022 C   0  0  0  0  0  0  0  0  0  0  0  0
   -0.8739   -0.1080    0.3852 N   0  0  0  0  0  0  0  0  0  0  0  0
    1.2531   -0.1626    0.8927 H   0  0  0  0  0  0  0  0  0  0  0  0
    2.9925   -0.5318    2.3542 H   0  0  0  0  0  0  0  0  0  0  0  0
    5.4102   -0.5687    2.8498 H   0  0  0  0  0  0  0  0  0  0  0  0
    9.0018    0.5549   -0.2145 H   0  0  0  0  0  0  0  0  0  0  0  0
    3.8386    0.7636   -1.6915 H   0  0  0  0  0  0  0  0  0  0  0  0
   -1.3278    0.8473   -2.7658 H   0  0  0  0  0  0  0  0  0  0  0  0
   -2.8056   -0.7099    2.0255 H   0  0  0  0  0  0  0  0  0  0  0  0
   -4.7291    0.5637    2.2952 H   0  0  0  0  0  0  0  0  0  0  0  0
   -3.6242    1.6817    1.4928 H   0  0  0  0  0  0  0  0  0  0  0  0
   -4.8131    1.2998   -0.6774 H   0  0  0  0  0  0  0  0  0  0  0  0
   -5.9675    1.7211    0.5839 H   0  0  0  0  0  0  0  0  0  0  0  0
   -4.7015   -1.0099   -1.3936 H   0  0  0  0  0  0  0  0  0  0  0  0
   -5.7794   -2.1693   -0.6225 H   0  0  0  0  0  0  0  0  0  0  0  0
   -3.4248   -2.4440    0.2135 H   0  0  0  0  0  0  0  0  0  0  0  0
   -4.6015   -2.0766    1.4764 H   0  0  0  0  0  0  0  0  0  0  0  0
  1  2  2  0
  2  3  1  0
  3  4  1  0
  4  5  2  0
  5  6  1  0
  6  7  2  0
  7  8  1  0
  8  9  2  0
  9 10  1  0
 10 11  1  0
 11 12  2  0
  2 13  1  0
 13 14  2  0
 14 15  1  0
 15 16  1  0
 16 17  1  0
 17 18  1  0
 18 19  1  0
 19 20  1  0
 20 21  1  0
 21 22  1  0
 16 23  2  0
 12  4  1  0
 23 13  1  0
 11  7  1  0
 22 17  1  0
  3 24  1  0
  5 25  1  0
  6 26  1  0
  9 27  1  0
 12 28  1  0
 14 29  1  0
 17 30  1  0
 18 31  1  0
 18 32  1  0
 19 33  1  0
 19 34  1  0
 21 35  1  0
 21 36  1  0
 22 37  1  0
 22 38  1  0
M  END
$$$$
